iidm/iidm-serde/src/test/resources/V1_18/ground.xml
<?xml version="1.0" encoding="UTF-8"?>
<iidm:network xmlns:iidm="http://www.powsybl.org/schema/iidm/1_18" xmlns:bbsp="http://www.itesla_project.eu/schema/iidm/ext/busbarsectionposition/1_0" id="test" caseDate="2023-12-18T14:49:00.000+01:00" forecastDistance="0" sourceFormat="test" minimumValidationLevel="STEADY_STATE_HYPOTHESIS">
    <iidm:substation id="S" country="FR">
        <iidm:voltageLevel id="VL1" nominalV="400.0" topologyKind="NODE_BREAKER">
            <iidm:nodeBreakerTopology>
                <iidm:busbarSection id="BBS1" node="0"/>
                <iidm:busbarSection id="BBS2" node="1"/>
                <iidm:switch id="D_0_3" kind="DISCONNECTOR" open="false" node1="0" node2="4"/>
                <iidm:switch id="D_1_3" kind="DISCONNECTOR" open="false" node1="1" node2="4"/>
                <iidm:switch id="D_0_5" kind="DISCONNECTOR" open="false" node1="0" node2="5"/>
                <iidm:switch id="D_1_5" kind="DISCONNECTOR" open="false" node1="1" node2="5"/>
                <iidm:switch id="BR_LOAD" kind="BREAKER" open="false" node1="2" node2="4"/>
                <iidm:switch id="BR_VL1" kind="BREAKER" open="true" node1="3" node2="5"/>
                <iidm:switch id="D_1_6" kind="DISCONNECTOR" open="false" node1="1" node2="6"/>
            </iidm:nodeBreakerTopology>
            <iidm:load id="L" loadType="UNDEFINED" p0="1.0" q0="1.0" node="2"/>
            <iidm:ground id="GroundNB" name="GroundNB1" node="6"/>
        </iidm:voltageLevel>
        <iidm:voltageLevel id="VL2" nominalV="220.0" topologyKind="BUS_BREAKER">
            <iidm:busBreakerTopology>
                <iidm:bus id="BUS1"/>
                <iidm:bus id="BUS2"/>
                <iidm:switch id="BR_VL2" kind="BREAKER" retained="true" open="false" bus1="BUS1" bus2="BUS2"/>
            </iidm:busBreakerTopology>
            <iidm:generator id="CB" energySource="HYDRO" minP="0.0" maxP="70.0" targetP="0.0" localTargetV="0.0" localTargetQ="0.0" bus="BUS1" connectableBus="BUS1">
                <iidm:minMaxReactiveLimits minQ="-1.7976931348623157E308" maxQ="1.7976931348623157E308"/>
            </iidm:generator>
            <iidm:ground id="GroundBB" name="GroundBB1" bus="BUS2" connectableBus="BUS2"/>
        </iidm:voltageLevel>
        <iidm:twoWindingsTransformer id="TWT" r="2.0" x="14.745" b="3.2E-5" ratedU1="225.0" ratedU2="225.0" voltageLevelId1="VL1" node1="3" voltageLevelId2="VL2" bus2="BUS1" connectableBus2="BUS1"/>
    </iidm:substation>
    <iidm:extension id="BBS2">
        <bbsp:busbarSectionPosition busbarIndex="2" sectionIndex="1"/>
    </iidm:extension>
    <iidm:extension id="BBS1">
        <bbsp:busbarSectionPosition busbarIndex="1" sectionIndex="1"/>
    </iidm:extension>
</iidm:network>
